# This is log file written by graphene.airebo.lmp file
# equilibration -- 250 ps of nvt, 250 ps of npt run

variable        temp_i equal 77.0
variable        temp_f equal 77.0
variable        press_i equal 10
variable        press_f equal 10

units               metal
atom_style          atomic

read_data           min_graphene_462.lmpdat
Reading data file ...
  orthogonal box = (-26.493052 -24.660999 -50) to (123.50695 125.339 50)
  reading atoms ...
  3936 atoms
  reading velocities ...
  3936 velocities

neighbor            0.5 bin
neigh_modify        delay 5 every 1

pair_style          airebo 3.0 1 1
pair_coeff          * * CH.airebo C
Reading airebo potential file CH.airebo with DATE: 2011-10-25

variable           my_timestep equal 0.001
timestep           0.001

# Output frequancy
thermo             1000 #000
variable           data_write_frq equal 1000

compute 0 all pair airebo
variable           REBO equal c_0[1]
variable           LJ   equal c_0[2]
variable           TORSION equal c_0[3]

thermo_style       custom step time temp press density ndanger pe ke etotal evdwl ecoul epair v_REBO v_LJ v_TORSION enthalpy ecouple econserve

velocity           all create 77 4928459 rot yes mom yes dist gaussian

# NVT
fix                 my_nvt all nvt temp 77 77 $(100*dt)
fix                 my_nvt all nvt temp 77 77 0.10000000000000000555
compute             1 all pe/atom
restart        	    1000  graphene_nvt_eql_1_a.rst graphene_nvt_eql_1_b.rst
dump                nvt_eq_dump all custom 1000 graphene_nvt_eql_1.lammpstrj id type x y z xu yu zu vx vy vz fx fy fz c_1 ix iy iz
dump_modify	        nvt_eq_dump sort id

run                 250000 # 250 ps

CITE-CITE-CITE-CITE-CITE-CITE-CITE-CITE-CITE-CITE-CITE-CITE-CITE

Your simulation uses code contributions which should be cited:

- Type Label Framework: https://doi.org/10.1021/acs.jpcb.3c08419

@Article{Gissinger24,
 author = {Jacob R. Gissinger, Ilia Nikiforov, Yaser Afshar, Brendon Waters, Moon-ki Choi, Daniel S. Karls, Alexander Stukowski, Wonpil Im, Hendrik Heinz, Axel Kohlmeyer, and Ellad B. Tadmor},
 title = {Type Label Framework for Bonded Force Fields in LAMMPS},
 journal = {J. Phys. Chem. B},
 year =    2024,
 volume =  128,
 number =  13,
 pages =   {3282â€“-3297}
}

CITE-CITE-CITE-CITE-CITE-CITE-CITE-CITE-CITE-CITE-CITE-CITE-CITE

Last active /omp style is pair_style airebo/omp
Step          Time           Temp          Press         Density       Ndanger       PotEng         KinEng         TotEng         E_vdwl         E_coul         E_pair         v_REBO          v_LJ        v_TORSION       Enthalpy       Ecouple       Econserve
0   0              77             18.592452      0.034889986            0  -28780.9        39.165178     -28741.735     -28780.9        0             -28780.9       -30222.153     -67.1628        1508.4162     -28715.624      0             -28741.735
Averages over the last 126 of 251 rows, steps 125000 to 250000:
Temp Press Density Ndanger PotEng KinEng TotEng E_vdwl E_coul E_pair v_REBO v_LJ v_TORSION Enthalpy Ecouple Econserve
76.9113 -0.0945503 0.03489 0 -28749.3 39.1201 -28710.2 -28749.3 0 -28749.3 -30164.7 -67.2886 1482.7 -28710.3 -31.2408 -28741.4
Loop time of 946.693 on 4 procs for 250000 steps with 3936 atoms

unfix               my_nvt
undump              nvt_eq_dump
reset_timestep      0
write_data          graphene_nvt_eql_1.lmpdat
System init for write_data ...
Last active /omp style is pair_style airebo/omp
# Print message when the process is finished
print "Finished nvt equilibration run."
Finished nvt equilibration run.

# NPT
variable            purpose_2 string npt_eql

fix                  my_npt all npt temp 77 77 0.10000000000000000555 iso 10 10 $(1000*dt)
fix                  my_npt all npt temp 77 77 0.10000000000000000555 iso 10 10 1
compute              2 all pe/atom
restart              1000  graphene_npt_eql_1_a.rst graphene_npt_eql_1_b.rst
dump                 npt_eq_dump all custom 1000 graphene_npt_eql_1.lammpstrj id type x y z xu yu zu vx vy vz fx fy fz c_2 ix iy iz
dump_modify	         npt_eq_dump sort id

run                  250000 # 250 ps
Last active /omp style is pair_style airebo/omp
Step          Time           Temp          Press         Density       Ndanger       PotEng         KinEng         TotEng         E_vdwl         E_coul         E_pair         v_REBO          v_LJ        v_TORSION       Enthalpy       Ecouple       Econserve
0   0              78.104162      3.1227516      0.034889986            0  -28749.139      39.726797     -28709.413     -28749.139      0             -28749.139     -30164.981     -67.290564      1483.1318     -28705.027      0             -28709.413
Averages over the last 126 of 251 rows, steps 125000 to 250000:
Temp Press Density Ndanger PotEng KinEng TotEng E_vdwl E_coul E_pair v_REBO v_LJ v_TORSION Enthalpy Ecouple Econserve
76.9362 12.015 0.121406 2.27778 -28835 39.1328 -28795.8 -28835 0 -28835 -30249.8 -71.0943 1485.87 -28791 87.3677 -28708.5
Loop time of 1024.03 on 4 procs for 250000 steps with 3936 atoms

unfix                my_npt
undump               npt_eq_dump
write_data           graphene_npt_eql_1.lmpdat
System init for write_data ...
Last active /omp style is pair_style airebo/omp

# Print message when the entire process is finished
print "Finished npt equilibration run."
Finished npt equilibration run.
